<?xml version="1.0" encoding="UTF-8"?>

<!-- generated on 2024-04-09 16:37:10 by Eclipse SUMO sumo Version 1.19.0
-->

<configuration xmlns:xsi="http://www.w3.org/2001/XMLSchema-instance" xsi:noNamespaceSchemaLocation="http://sumo.dlr.de/xsd/sumoConfiguration.xsd">

    <input>
        <net-file value="net_test1.net.xml"/>
        <route-files value="vehiculos.rou.xml"/>
    </input>

</configuration>
