<?xml version="1.0" encoding="UTF-8"?>

<!-- generated on 2024-04-09 16:37:10 by Eclipse SUMO netedit Version 1.19.0
<configuration xmlns:xsi="http://www.w3.org/2001/XMLSchema-instance" xsi:noNamespaceSchemaLocation="http://sumo.dlr.de/xsd/neteditConfiguration.xsd">

    <input>
        <sumocfg-file value="C:\Program Files (x86)\Eclipse\Sumofile_5\main.sumocfg"/>
        <additional-files value=""/>
        <route-files value="C:\Program Files (x86)\Eclipse\Sumofile_5\vehiculos.rou.xml"/>
        <sumo-net-file value="C:\Program Files (x86)\Eclipse\Sumofile_5\net_test1.net.xml"/>
    </input>

    <output>
        <output-file value="C:\Program Files (x86)\Eclipse\Sumofile_5\net_test1.net.xml"/>
    </output>

    <processing>
        <geometry.min-radius.fix.railways value="false"/>
        <geometry.max-grade.fix value="false"/>
        <offset.disable-normalization value="true"/>
        <lefthand value="0"/>
    </processing>

    <junctions>
        <no-turnarounds value="true"/>
        <junctions.corner-detail value="5"/>
        <junctions.limit-turn-speed value="5.50"/>
        <rectangular-lane-cut value="0"/>
    </junctions>

    <pedestrian>
        <walkingareas value="0"/>
    </pedestrian>

</configuration>
-->

<net version="1.16" junctionCornerDetail="5" limitTurnSpeed="5.50" xmlns:xsi="http://www.w3.org/2001/XMLSchema-instance" xsi:noNamespaceSchemaLocation="http://sumo.dlr.de/xsd/net_file.xsd">

    <location netOffset="0.00,0.00" convBoundary="0.00,0.00,600.00,0.00" origBoundary="-10000000000.00,-10000000000.00,10000000000.00,10000000000.00" projParameter="!"/>

    <edge id=":J1_0" function="internal">
        <lane id=":J1_0_0" index="0" speed="13.89" length="0.10" shape="100.00,-17.60 100.00,-17.60"/>
        <lane id=":J1_0_1" index="1" speed="13.89" length="0.10" shape="100.00,-14.40 100.00,-14.40"/>
        <lane id=":J1_0_2" index="2" speed="13.89" length="0.10" shape="100.00,-11.20 100.00,-11.20"/>
        <lane id=":J1_0_3" index="3" speed="13.89" length="0.10" shape="100.00,-8.00 100.00,-8.00"/>
        <lane id=":J1_0_4" index="4" speed="13.89" length="0.10" shape="100.00,-4.80 100.00,-4.80"/>
        <lane id=":J1_0_5" index="5" speed="13.89" length="0.10" shape="100.00,-1.60 100.00,-1.60"/>
    </edge>
    <edge id=":J2_0" function="internal">
        <lane id=":J2_0_0" index="0" speed="13.89" length="0.10" shape="200.00,-17.60 200.00,-17.60"/>
        <lane id=":J2_0_1" index="1" speed="13.89" length="0.10" shape="200.00,-14.40 200.00,-14.40"/>
        <lane id=":J2_0_2" index="2" speed="13.89" length="0.10" shape="200.00,-11.20 200.00,-11.20"/>
        <lane id=":J2_0_3" index="3" speed="13.89" length="0.10" shape="200.00,-8.00 200.00,-8.00"/>
        <lane id=":J2_0_4" index="4" speed="13.89" length="0.10" shape="200.00,-4.80 200.00,-4.80"/>
        <lane id=":J2_0_5" index="5" speed="13.89" length="0.10" shape="200.00,-1.60 200.00,-1.60"/>
    </edge>
    <edge id=":J3_0" function="internal">
        <lane id=":J3_0_0" index="0" speed="13.89" length="0.10" shape="300.00,-17.60 300.00,-17.60"/>
        <lane id=":J3_0_1" index="1" speed="13.89" length="0.10" shape="300.00,-14.40 300.00,-14.40"/>
        <lane id=":J3_0_2" index="2" speed="13.89" length="0.10" shape="300.00,-11.20 300.00,-11.20"/>
        <lane id=":J3_0_3" index="3" speed="13.89" length="0.10" shape="300.00,-8.00 300.00,-8.00"/>
        <lane id=":J3_0_4" index="4" speed="13.89" length="0.10" shape="300.00,-4.80 300.00,-4.80"/>
        <lane id=":J3_0_5" index="5" speed="13.89" length="0.10" shape="300.00,-1.60 300.00,-1.60"/>
    </edge>

    <edge id="E0" from="J0" to="J1" priority="-1">
        <lane id="E0_0" index="0" speed="13.89" length="100.00" shape="0.00,-17.60 100.00,-17.60"/>
        <lane id="E0_1" index="1" speed="13.89" length="100.00" shape="0.00,-14.40 100.00,-14.40"/>
        <lane id="E0_2" index="2" speed="13.89" length="100.00" shape="0.00,-11.20 100.00,-11.20"/>
        <lane id="E0_3" index="3" speed="13.89" length="100.00" shape="0.00,-8.00 100.00,-8.00"/>
        <lane id="E0_4" index="4" speed="13.89" length="100.00" shape="0.00,-4.80 100.00,-4.80"/>
        <lane id="E0_5" index="5" speed="13.89" length="100.00" shape="0.00,-1.60 100.00,-1.60"/>
    </edge>
    <edge id="E1" from="J1" to="J2" priority="-1">
        <lane id="E1_0" index="0" speed="13.89" length="100.00" shape="100.00,-17.60 200.00,-17.60"/>
        <lane id="E1_1" index="1" speed="13.89" length="100.00" shape="100.00,-14.40 200.00,-14.40"/>
        <lane id="E1_2" index="2" speed="13.89" length="100.00" shape="100.00,-11.20 200.00,-11.20"/>
        <lane id="E1_3" index="3" speed="13.89" length="100.00" shape="100.00,-8.00 200.00,-8.00"/>
        <lane id="E1_4" index="4" speed="13.89" length="100.00" shape="100.00,-4.80 200.00,-4.80"/>
        <lane id="E1_5" index="5" speed="13.89" length="100.00" shape="100.00,-1.60 200.00,-1.60"/>
    </edge>
    <edge id="E2" from="J2" to="J3" priority="-1">
        <lane id="E2_0" index="0" speed="13.89" length="100.00" shape="200.00,-17.60 300.00,-17.60"/>
        <lane id="E2_1" index="1" speed="13.89" length="100.00" shape="200.00,-14.40 300.00,-14.40"/>
        <lane id="E2_2" index="2" speed="13.89" length="100.00" shape="200.00,-11.20 300.00,-11.20"/>
        <lane id="E2_3" index="3" speed="13.89" length="100.00" shape="200.00,-8.00 300.00,-8.00"/>
        <lane id="E2_4" index="4" speed="13.89" length="100.00" shape="200.00,-4.80 300.00,-4.80"/>
        <lane id="E2_5" index="5" speed="13.89" length="100.00" shape="200.00,-1.60 300.00,-1.60"/>
    </edge>
    <edge id="E3" from="J3" to="J4" priority="-1">
        <lane id="E3_0" index="0" speed="13.89" length="300.00" shape="300.00,-17.60 600.00,-17.60"/>
        <lane id="E3_1" index="1" speed="13.89" length="300.00" shape="300.00,-14.40 600.00,-14.40"/>
        <lane id="E3_2" index="2" speed="13.89" length="300.00" shape="300.00,-11.20 600.00,-11.20"/>
        <lane id="E3_3" index="3" speed="13.89" length="300.00" shape="300.00,-8.00 600.00,-8.00"/>
        <lane id="E3_4" index="4" speed="13.89" length="300.00" shape="300.00,-4.80 600.00,-4.80"/>
        <lane id="E3_5" index="5" speed="13.89" length="300.00" shape="300.00,-1.60 600.00,-1.60"/>
    </edge>

    <tlLogic id="J1" type="static" programID="0" offset="0">
        <phase duration="150" state="rrrrrr"/>
        <phase duration="50" state="GGGGGG"/>
    </tlLogic>
    <tlLogic id="J2" type="static" programID="0" offset="0">
        <phase duration="82" state="GGGGGG"/>
        <phase duration="3"  state="yyyyyy"/>
        <phase duration="5"  state="rrrrrr"/>
    </tlLogic>
    <tlLogic id="J3" type="static" programID="0" offset="0">
        <phase duration="82" state="GGGGGG"/>
        <phase duration="3"  state="yyyyyy"/>
        <phase duration="5"  state="rrrrrr"/>
    </tlLogic>

    <junction id="J0" type="dead_end" x="0.00" y="0.00" incLanes="" intLanes="" shape="0.00,0.00 0.00,-19.20"/>
    <junction id="J1" type="traffic_light" x="100.00" y="0.00" incLanes="E0_0 E0_1 E0_2 E0_3 E0_4 E0_5" intLanes=":J1_0_0 :J1_0_1 :J1_0_2 :J1_0_3 :J1_0_4 :J1_0_5" shape="100.00,0.00 100.00,-19.20 100.00,0.00">
        <request index="0" response="000000" foes="000000" cont="0"/>
        <request index="1" response="000000" foes="000000" cont="0"/>
        <request index="2" response="000000" foes="000000" cont="0"/>
        <request index="3" response="000000" foes="000000" cont="0"/>
        <request index="4" response="000000" foes="000000" cont="0"/>
        <request index="5" response="000000" foes="000000" cont="0"/>
    </junction>
    <junction id="J2" type="traffic_light" x="200.00" y="0.00" incLanes="E1_0 E1_1 E1_2 E1_3 E1_4 E1_5" intLanes=":J2_0_0 :J2_0_1 :J2_0_2 :J2_0_3 :J2_0_4 :J2_0_5" shape="200.00,0.00 200.00,-19.20 200.00,0.00">
        <request index="0" response="000000" foes="000000" cont="0"/>
        <request index="1" response="000000" foes="000000" cont="0"/>
        <request index="2" response="000000" foes="000000" cont="0"/>
        <request index="3" response="000000" foes="000000" cont="0"/>
        <request index="4" response="000000" foes="000000" cont="0"/>
        <request index="5" response="000000" foes="000000" cont="0"/>
    </junction>
    <junction id="J3" type="traffic_light" x="300.00" y="0.00" incLanes="E2_0 E2_1 E2_2 E2_3 E2_4 E2_5" intLanes=":J3_0_0 :J3_0_1 :J3_0_2 :J3_0_3 :J3_0_4 :J3_0_5" shape="300.00,0.00 300.00,-19.20 300.00,0.00">
        <request index="0" response="000000" foes="000000" cont="0"/>
        <request index="1" response="000000" foes="000000" cont="0"/>
        <request index="2" response="000000" foes="000000" cont="0"/>
        <request index="3" response="000000" foes="000000" cont="0"/>
        <request index="4" response="000000" foes="000000" cont="0"/>
        <request index="5" response="000000" foes="000000" cont="0"/>
    </junction>
    <junction id="J4" type="dead_end" x="600.00" y="0.00" incLanes="E3_0 E3_1 E3_2 E3_3 E3_4 E3_5" intLanes="" shape="600.00,-19.20 600.00,0.00"/>

    <connection from="E0" to="E1" fromLane="0" toLane="0" via=":J1_0_0" tl="J1" linkIndex="0" dir="s" state="O"/>
    <connection from="E0" to="E1" fromLane="1" toLane="1" via=":J1_0_1" tl="J1" linkIndex="1" dir="s" state="O"/>
    <connection from="E0" to="E1" fromLane="2" toLane="2" via=":J1_0_2" tl="J1" linkIndex="2" dir="s" state="O"/>
    <connection from="E0" to="E1" fromLane="3" toLane="3" via=":J1_0_3" tl="J1" linkIndex="3" dir="s" state="O"/>
    <connection from="E0" to="E1" fromLane="4" toLane="4" via=":J1_0_4" tl="J1" linkIndex="4" dir="s" state="O"/>
    <connection from="E0" to="E1" fromLane="5" toLane="5" via=":J1_0_5" tl="J1" linkIndex="5" dir="s" state="O"/>
    <connection from="E1" to="E2" fromLane="0" toLane="0" via=":J2_0_0" tl="J2" linkIndex="0" dir="s" state="O"/>
    <connection from="E1" to="E2" fromLane="1" toLane="1" via=":J2_0_1" tl="J2" linkIndex="1" dir="s" state="O"/>
    <connection from="E1" to="E2" fromLane="2" toLane="2" via=":J2_0_2" tl="J2" linkIndex="2" dir="s" state="O"/>
    <connection from="E1" to="E2" fromLane="3" toLane="3" via=":J2_0_3" tl="J2" linkIndex="3" dir="s" state="O"/>
    <connection from="E1" to="E2" fromLane="4" toLane="4" via=":J2_0_4" tl="J2" linkIndex="4" dir="s" state="O"/>
    <connection from="E1" to="E2" fromLane="5" toLane="5" via=":J2_0_5" tl="J2" linkIndex="5" dir="s" state="O"/>
    <connection from="E2" to="E3" fromLane="0" toLane="0" via=":J3_0_0" tl="J3" linkIndex="0" dir="s" state="O"/>
    <connection from="E2" to="E3" fromLane="1" toLane="1" via=":J3_0_1" tl="J3" linkIndex="1" dir="s" state="O"/>
    <connection from="E2" to="E3" fromLane="2" toLane="2" via=":J3_0_2" tl="J3" linkIndex="2" dir="s" state="O"/>
    <connection from="E2" to="E3" fromLane="3" toLane="3" via=":J3_0_3" tl="J3" linkIndex="3" dir="s" state="O"/>
    <connection from="E2" to="E3" fromLane="4" toLane="4" via=":J3_0_4" tl="J3" linkIndex="4" dir="s" state="O"/>
    <connection from="E2" to="E3" fromLane="5" toLane="5" via=":J3_0_5" tl="J3" linkIndex="5" dir="s" state="O"/>

    <connection from=":J1_0" to="E1" fromLane="0" toLane="0" dir="s" state="M"/>
    <connection from=":J1_0" to="E1" fromLane="1" toLane="1" dir="s" state="M"/>
    <connection from=":J1_0" to="E1" fromLane="2" toLane="2" dir="s" state="M"/>
    <connection from=":J1_0" to="E1" fromLane="3" toLane="3" dir="s" state="M"/>
    <connection from=":J1_0" to="E1" fromLane="4" toLane="4" dir="s" state="M"/>
    <connection from=":J1_0" to="E1" fromLane="5" toLane="5" dir="s" state="M"/>
    <connection from=":J2_0" to="E2" fromLane="0" toLane="0" dir="s" state="M"/>
    <connection from=":J2_0" to="E2" fromLane="1" toLane="1" dir="s" state="M"/>
    <connection from=":J2_0" to="E2" fromLane="2" toLane="2" dir="s" state="M"/>
    <connection from=":J2_0" to="E2" fromLane="3" toLane="3" dir="s" state="M"/>
    <connection from=":J2_0" to="E2" fromLane="4" toLane="4" dir="s" state="M"/>
    <connection from=":J2_0" to="E2" fromLane="5" toLane="5" dir="s" state="M"/>
    <connection from=":J3_0" to="E3" fromLane="0" toLane="0" dir="s" state="M"/>
    <connection from=":J3_0" to="E3" fromLane="1" toLane="1" dir="s" state="M"/>
    <connection from=":J3_0" to="E3" fromLane="2" toLane="2" dir="s" state="M"/>
    <connection from=":J3_0" to="E3" fromLane="3" toLane="3" dir="s" state="M"/>
    <connection from=":J3_0" to="E3" fromLane="4" toLane="4" dir="s" state="M"/>
    <connection from=":J3_0" to="E3" fromLane="5" toLane="5" dir="s" state="M"/>

</net>
