<?xml version="1.0" encoding="UTF-8"?>

<!-- generated on 2024-04-09 16:37:10 by Eclipse SUMO netedit Version 1.19.0
-->

<routes xmlns:xsi="http://www.w3.org/2001/XMLSchema-instance" xsi:noNamespaceSchemaLocation="http://sumo.dlr.de/xsd/routes_file.xsd">
    <!-- Vehicles, persons and containers (sorted by depart) -->
    <trip id="t_0" type="DEFAULT_PEDTYPE" depart="0.00" from="E0" to="E2"/>
    
</routes>
